Version 4
SHEET 1 880 680
WIRE -96 -160 -672 -160
WIRE -96 -112 -96 -160
WIRE -1920 -80 -1952 -80
WIRE -1760 -80 -1840 -80
WIRE -96 -64 -112 -64
WIRE -64 -64 -96 -64
WIRE 96 -64 16 -64
WIRE 256 -64 96 -64
WIRE 544 -64 336 -64
WIRE -384 -48 -400 -48
WIRE -224 -48 -304 -48
WIRE 256 32 256 -16
WIRE -2368 64 -2416 64
WIRE -2240 64 -2288 64
WIRE -2080 64 -2176 64
WIRE -1952 64 -1952 -80
WIRE -1952 64 -2000 64
WIRE -1904 64 -1952 64
WIRE -672 64 -672 -160
WIRE 544 64 544 -64
WIRE 624 64 544 64
WIRE -1760 80 -1760 -80
WIRE -1760 80 -1840 80
WIRE -1616 80 -1760 80
WIRE -320 80 -320 48
WIRE 544 80 544 64
WIRE 544 80 448 80
WIRE -2128 96 -2128 16
WIRE -1984 96 -2128 96
WIRE -1904 96 -1984 96
WIRE -832 96 -1424 96
WIRE -512 96 -768 96
WIRE -400 96 -400 -48
WIRE -400 96 -432 96
WIRE -352 96 -400 96
WIRE -224 112 -224 -48
WIRE -224 112 -288 112
WIRE -160 112 -224 112
WIRE -96 112 -96 -64
WIRE -592 128 -592 48
WIRE -400 128 -592 128
WIRE -352 128 -400 128
WIRE 96 128 96 -64
WIRE 144 128 96 128
WIRE -2416 176 -2416 64
WIRE -2128 176 -2128 96
WIRE -1616 176 -1616 160
WIRE -1424 176 -1424 96
WIRE -1424 176 -1616 176
WIRE -1616 192 -1616 176
WIRE -592 192 -592 128
WIRE 144 224 96 224
WIRE 624 224 544 224
WIRE 544 272 544 224
WIRE 544 272 448 272
WIRE 96 432 96 224
WIRE 96 432 64 432
WIRE 272 432 96 432
WIRE 544 432 544 272
WIRE 544 432 352 432
FLAG 624 144 0
FLAG 624 304 0
FLAG 640 -128 0
FLAG -2416 256 0
FLAG 640 -208 V3.3
FLAG -1872 48 v3.3
FLAG -320 48 v3.3
FLAG 256 320 0
FLAG 256 -16 V3.3
FLAG -592 272 0
FLAG -1872 112 0
FLAG -320 144 0
FLAG -592 -32 V3.3
FLAG -2128 -64 V3.3
FLAG -2128 256 0
FLAG -80 432 0
FLAG -1984 160 0
FLAG -400 192 0
FLAG -1616 336 0
SYMBOL Opamps\\LTC6403-1 272 176 R0
SYMATTR InstName U1
SYMBOL res 608 48 R0
SYMATTR InstName R1
SYMATTR Value 1k
SYMBOL res 608 208 R0
SYMATTR InstName R2
SYMATTR Value 1k
SYMBOL res 352 -80 R90
WINDOW 0 0 56 VBottom 2
WINDOW 3 32 56 VTop 2
SYMATTR InstName R3
SYMATTR Value 10k
SYMBOL res 368 416 R90
WINDOW 0 0 56 VBottom 2
WINDOW 3 32 56 VTop 2
SYMATTR InstName R4
SYMATTR Value 10k
SYMBOL res 80 416 R90
WINDOW 0 0 56 VBottom 2
WINDOW 3 32 56 VTop 2
SYMATTR InstName R5
SYMATTR Value 1k
SYMBOL res 32 -80 R90
WINDOW 0 0 56 VBottom 2
WINDOW 3 32 56 VTop 2
SYMATTR InstName R6
SYMATTR Value 1k
SYMBOL Opamps\\LT6231 -320 112 R0
WINDOW 3 28 -67 Left 2
SYMATTR InstName U2
SYMBOL res -288 -64 R90
WINDOW 0 0 56 VBottom 2
WINDOW 3 32 56 VTop 2
SYMATTR InstName R7
SYMATTR Value 10k
SYMBOL res -416 80 R90
WINDOW 0 -1 92 VBottom 2
WINDOW 3 -29 42 VTop 2
SYMATTR InstName R8
SYMATTR Value 560
SYMBOL res -1824 -96 R90
WINDOW 0 0 56 VBottom 2
WINDOW 3 32 56 VTop 2
SYMATTR InstName R9
SYMATTR Value 12k
SYMBOL res -1984 48 R90
WINDOW 0 0 56 VBottom 2
WINDOW 3 32 56 VTop 2
SYMATTR InstName R10
SYMATTR Value 560
SYMBOL voltage 640 -224 R0
WINDOW 123 0 0 Left 0
WINDOW 39 0 0 Left 0
SYMATTR InstName V2
SYMATTR Value 3.3
SYMBOL voltage -2416 160 R0
WINDOW 0 35 39 Left 2
WINDOW 3 32 109 Left 2
WINDOW 123 32 81 Left 2
WINDOW 39 0 0 Left 0
SYMATTR InstName V3
SYMATTR Value ""
SYMATTR Value2 AC 0.001
SYMBOL res -2272 48 R90
WINDOW 0 0 56 VBottom 2
WINDOW 3 32 56 VTop 2
SYMATTR InstName R11
SYMATTR Value 50
SYMBOL Opamps\\LT6231 -1872 80 R0
SYMATTR InstName U3
SYMBOL res -608 176 R0
SYMATTR InstName R12
SYMATTR Value 10k
SYMBOL res -608 -48 R0
SYMATTR InstName R13
SYMATTR Value 10k
SYMBOL res -2144 -80 R0
SYMATTR InstName R14
SYMATTR Value 10k
SYMBOL res -2144 160 R0
SYMATTR InstName R15
SYMATTR Value 10k
SYMBOL cap -768 80 R90
WINDOW 0 0 32 VBottom 2
WINDOW 3 32 32 VTop 2
SYMATTR InstName C4
SYMATTR Value 1µ
SYMBOL cap -2176 48 R90
WINDOW 0 0 32 VBottom 2
WINDOW 3 32 32 VTop 2
SYMATTR InstName C5
SYMATTR Value 1µ
SYMBOL cap -96 96 R90
WINDOW 0 0 32 VBottom 2
WINDOW 3 32 32 VTop 2
SYMATTR InstName C2
SYMATTR Value 1µ
SYMBOL cap -16 416 R90
WINDOW 0 0 32 VBottom 2
WINDOW 3 32 32 VTop 2
SYMATTR InstName C1
SYMATTR Value 1µ
SYMBOL cap -2000 96 R0
SYMATTR InstName C6
SYMATTR Value 0.1µ
SYMBOL cap -416 128 R0
SYMATTR InstName C8
SYMATTR Value 0.1µ
SYMBOL res -1632 64 R0
SYMATTR InstName R16
SYMATTR Value 100
SYMBOL res -1632 176 R0
SYMATTR InstName R17
SYMATTR Value 900
SYMBOL cap -1632 272 R0
SYMATTR InstName C3
SYMATTR Value 1µ
TEXT -2456 440 Left 2 ;3volt voeding fg-23629-p16
TEXT -2376 472 Left 2 ;3.3 volt voeding via diode
TEXT -2512 368 Left 2 !.ac dec 100 100 10meg
TEXT -1376 40 Left 2 ;hier het low pass filter
TEXT -568 -200 Left 2 ;bypass via jumper of R7  aanpassen
TEXT -1768 392 Left 2 ;1KOhm lin potentiometer
