Version 4
SHEET 1 880 680
WIRE 272 48 48 48
WIRE 304 128 240 128
WIRE 496 128 384 128
WIRE 272 240 272 48
WIRE 320 240 272 240
WIRE 448 240 384 240
WIRE 64 272 -32 272
WIRE 240 272 240 128
WIRE 240 272 208 272
WIRE 320 272 240 272
WIRE 496 272 496 128
WIRE 496 272 384 272
WIRE 528 272 496 272
WIRE -32 288 -32 272
WIRE 320 304 272 304
FLAG 656 112 0
FLAG 656 32 V3.3
FLAG -32 368 0
FLAG 448 240 0
FLAG 272 304 V3.3
FLAG 48 -32 V3.3
FLAG 48 128 0
FLAG -16 48 0
SYMBOL res 288 144 R270
WINDOW 0 32 56 VTop 2
WINDOW 3 0 56 VBottom 2
SYMATTR InstName R1
SYMATTR Value 20k
SYMBOL res 224 256 R90
WINDOW 0 0 56 VBottom 2
WINDOW 3 32 56 VTop 2
SYMATTR InstName R2
SYMATTR Value 1k
SYMBOL voltage -32 272 R0
WINDOW 123 -113 11 Left 2
WINDOW 39 0 0 Left 0
WINDOW 3 -405 89 Left 2
SYMATTR Value2 AC 0.01
SYMATTR Value ""
SYMATTR InstName V1
SYMBOL voltage 656 16 R0
SYMATTR InstName V2
SYMATTR Value 3.3
SYMBOL AutoGenerated\\LMH6629 352 272 R0
SYMATTR InstName U1
SYMBOL cap 128 256 R90
WINDOW 0 0 32 VBottom 2
WINDOW 3 32 32 VTop 2
SYMATTR InstName C1
SYMATTR Value 1µ
SYMBOL res 32 -48 R0
SYMATTR InstName R3
SYMATTR Value 8.6k
SYMBOL res 32 32 R0
SYMATTR InstName R4
SYMATTR Value 10k
SYMBOL cap 48 32 R90
WINDOW 0 0 32 VBottom 2
WINDOW 3 32 54 VTop 2
SYMATTR InstName C2
SYMATTR Value 0.1µ
TEXT 184 -48 Left 2 !.ac dec 100 100 10meg
