Version 4
SHEET 1 880 680
SYMBOL AutoGenerated\\THS4521 224 176 R0
SYMATTR InstName U1
